1a30_ligand
  rDOCK(R)          3D
libRbt.so/2013.1/901 2013/11/27
 31 30  0  0  0  0  0  0  0  0999 V2000
    4.7061   27.9597    5.8996 N   0  3  0  0  0  0
    5.5766   26.7711    5.6920 C   0  0  0  0  0  0
    7.0368   27.1289    5.9644 C   0  0  0  0  0  0
    7.4843   28.2436    5.6736 O   0  0  0  0  0  0
    5.4050   26.2189    4.2747 C   0  0  0  0  0  0
    5.5504   27.2623    3.1847 C   0  0  0  0  0  0
    5.2732   26.7158    1.7979 C   0  0  0  0  0  0
    4.2941   25.9509    1.6371 O   0  0  0  0  0  0
    6.0313   27.0669    0.8655 O   0  0  0  0  0  0
    7.7576   26.1953    6.5734 N   0  0  0  0  0  0
    9.1629   26.3907    6.9041 C   0  0  0  0  0  0
    9.9666   25.2365    6.3318 C   0  0  0  0  0  0
   10.0674   24.1717    6.9456 O   0  0  0  0  0  0
    9.3278   26.4895    8.4185 C   0  0  0  0  0  0
    8.6707   27.7332    8.9809 C   0  0  0  0  0  0
    9.2995   28.8047    8.8997 O   0  0  0  0  0  0
    7.5174   27.6545    9.4617 O   0  0  0  0  0  0
   10.4943   25.4463    5.1293 N   0  0  0  0  0  0
   11.2620   24.4265    4.4308 C   0  0  0  0  0  0
   12.7516   24.7165    4.4033 C   0  0  0  0  0  0
   13.5362   23.7527    4.2726 O   0  0  0  0  0  0
   10.7290   24.2833    3.0121 C   0  0  0  0  0  0
    9.2701   23.8426    3.0627 C   0  0  0  0  0  0
    8.4623   24.5983    2.0516 C   0  0  0  0  0  0
    9.1832   22.3352    2.8746 C   0  0  0  0  0  0
   13.1197   25.9040    4.5141 O   0  0  0  0  0  0
    3.7468   27.7097    5.7167 H   0  0  0  0  0  0
    4.9871   28.6960    5.2711 H   0  0  0  0  0  0
    4.7944   28.2788    6.8518 H   0  0  0  0  0  0
    7.3210   25.3283    6.8135 H   0  0  0  0  0  0
   10.3591   26.3347    4.6904 H   0  0  0  0  0  0
  1 27  1  0  0  0
  1 28  1  0  0  0
  1 29  1  0  0  0
  2  5  1  0  0  0
  2  1  1  0  0  0
  3  2  1  0  0  0
  3  4  2  0  0  0
  5  6  1  0  0  0
  6  7  1  0  0  0
  7  8  2  0  0  0
  7  9  1  0  0  0
 10  3  1  0  0  0
 10 30  1  0  0  0
 11 14  1  0  0  0
 11 10  1  0  0  0
 12 11  1  0  0  0
 12 13  2  0  0  0
 12 18  1  0  0  0
 14 15  1  0  0  0
 15 16  2  0  0  0
 15 17  1  0  0  0
 18 19  1  0  0  0
 18 31  1  0  0  0
 19 20  1  0  0  0
 19 22  1  0  0  0
 20 26  2  0  0  0
 20 21  1  0  0  0
 22 23  1  0  0  0
 23 25  1  0  0  0
 23 24  1  0  0  0
M  END
>  <CHROM.0>
59.51039311,175.31531333

>  <CHROM.1>
8.51435861,25.99449791,5.04346369,-3.13544611,0.39149938,-1.98816434

>  <Name>
1a30_ligand

>  <RI>
4.05962e+07

>  <Rbt.Current_Directory>
/lustre3/iip_pkuhpc/iip_test/qxie/dock/rdock/rigid_docking

>  <Rbt.Executable>
rbdock ($Id: //depot/dev/client3/rdock/2013.1/src/exe/rbdock.cxx#4 $)

>  <Rbt.Library>
libRbt.so (2013.1, Build901 2013/11/27)

>  <Rbt.Parameter_File>
dock.prm

>  <Rbt.Receptor>
prm_rigid/1a30.prm

>  <SCORE>
-12.2896

>  <SCORE.INTER>
-11.8932

>  <SCORE.INTER.CONST>
1

>  <SCORE.INTER.POLAR>
-2.45274

>  <SCORE.INTER.REPUL>
0

>  <SCORE.INTER.ROT>
12

>  <SCORE.INTER.VDW>
-20.9539

>  <SCORE.INTER.norm>
-0.457431

>  <SCORE.INTRA>
9.7824e-12

>  <SCORE.INTRA.DIHEDRAL>
-9.09495e-13

>  <SCORE.INTRA.DIHEDRAL.0>
18.9093

>  <SCORE.INTRA.POLAR>
0

>  <SCORE.INTRA.POLAR.0>
0

>  <SCORE.INTRA.REPUL>
0

>  <SCORE.INTRA.REPUL.0>
0

>  <SCORE.INTRA.VDW>
1.02371e-11

>  <SCORE.INTRA.VDW.0>
-5.02882

>  <SCORE.INTRA.norm>
3.76246e-13

>  <SCORE.RESTR>
0

>  <SCORE.RESTR.CAVITY>
0

>  <SCORE.RESTR.norm>
0

>  <SCORE.SYSTEM>
-0.396353

>  <SCORE.SYSTEM.CONST>
0

>  <SCORE.SYSTEM.DIHEDRAL>
0.119318

>  <SCORE.SYSTEM.VDW>
-0.456013

>  <SCORE.SYSTEM.norm>
-0.0152444

>  <SCORE.heavy>
26

>  <SCORE.norm>
-0.472675

$$$$
1a30_ligand
  rDOCK(R)          3D
libRbt.so/2013.1/901 2013/11/27
 31 30  0  0  0  0  0  0  0  0999 V2000
    4.6443   27.9365    5.8631 N   0  3  0  0  0  0
    5.5163   26.7500    5.6489 C   0  0  0  0  0  0
    6.9735   27.1026    5.9427 C   0  0  0  0  0  0
    7.4252   28.2208    5.6724 O   0  0  0  0  0  0
    5.3602   26.2176    4.2223 C   0  0  0  0  0  0
    5.5188   27.2759    3.1485 C   0  0  0  0  0  0
    5.2569   26.7488    1.7512 C   0  0  0  0  0  0
    4.2790   25.9872    1.5688 O   0  0  0  0  0  0
    6.0257   27.1120    0.8324 O   0  0  0  0  0  0
    7.6866   26.1600    6.5469 N   0  0  0  0  0  0
    9.0883   26.3494    6.8960 C   0  0  0  0  0  0
    9.8974   25.2025    6.3170 C   0  0  0  0  0  0
    9.9905   24.1292    6.9171 O   0  0  0  0  0  0
    9.2361   26.4271    8.4135 C   0  0  0  0  0  0
    8.5737   27.6636    8.9855 C   0  0  0  0  0  0
    9.2042   28.7355    8.9262 O   0  0  0  0  0  0
    7.4150   27.5793    9.4521 O   0  0  0  0  0  0
   10.4389   25.4284    5.1235 N   0  0  0  0  0  0
   11.2136   24.4175    4.4197 C   0  0  0  0  0  0
   12.7036   24.7065    4.4130 C   0  0  0  0  0  0
   13.4889   23.7438    4.2779 O   0  0  0  0  0  0
   10.6966   24.2945    2.9932 C   0  0  0  0  0  0
    9.2369   23.8545    3.0212 C   0  0  0  0  0  0
    8.4412   24.6249    2.0116 C   0  0  0  0  0  0
    9.1508   22.3499    2.8113 C   0  0  0  0  0  0
   13.0715   25.8919    4.5444 O   0  0  0  0  0  0
    3.6870   27.6900    5.6659 H   0  0  0  0  0  0
    4.9331   28.6811    5.2480 H   0  0  0  0  0  0
    4.7222   28.2423    6.8204 H   0  0  0  0  0  0
    7.2467   25.2901    6.7700 H   0  0  0  0  0  0
   10.3094   26.3228    4.6955 H   0  0  0  0  0  0
  1 27  1  0  0  0
  1 28  1  0  0  0
  1 29  1  0  0  0
  2  5  1  0  0  0
  2  1  1  0  0  0
  3  2  1  0  0  0
  3  4  2  0  0  0
  5  6  1  0  0  0
  6  7  1  0  0  0
  7  8  2  0  0  0
  7  9  1  0  0  0
 10  3  1  0  0  0
 10 30  1  0  0  0
 11 14  1  0  0  0
 11 10  1  0  0  0
 12 11  1  0  0  0
 12 13  2  0  0  0
 12 18  1  0  0  0
 14 15  1  0  0  0
 15 16  2  0  0  0
 15 17  1  0  0  0
 18 19  1  0  0  0
 18 31  1  0  0  0
 19 20  1  0  0  0
 19 22  1  0  0  0
 20 26  2  0  0  0
 20 21  1  0  0  0
 22 23  1  0  0  0
 23 25  1  0  0  0
 23 24  1  0  0  0
M  END
>  <CHROM.0>
178.37973464,174.32931231

>  <CHROM.1>
8.46049456,25.97958252,5.02289627,3.13688519,0.39680549,-1.97017389

>  <Name>
1a30_ligand

>  <RI>
4.05962e+07

>  <Rbt.Current_Directory>
/lustre3/iip_pkuhpc/iip_test/qxie/dock/rdock/rigid_docking

>  <Rbt.Executable>
rbdock ($Id: //depot/dev/client3/rdock/2013.1/src/exe/rbdock.cxx#4 $)

>  <Rbt.Library>
libRbt.so (2013.1, Build901 2013/11/27)

>  <Rbt.Parameter_File>
dock.prm

>  <Rbt.Receptor>
prm_rigid/1a30.prm

>  <SCORE>
-12.37

>  <SCORE.INTER>
-11.969

>  <SCORE.INTER.CONST>
1

>  <SCORE.INTER.POLAR>
-2.53353

>  <SCORE.INTER.REPUL>
0

>  <SCORE.INTER.ROT>
12

>  <SCORE.INTER.VDW>
-20.755

>  <SCORE.INTER.norm>
-0.460347

>  <SCORE.INTRA>
2.02354e-11

>  <SCORE.INTRA.DIHEDRAL>
-2.70006e-13

>  <SCORE.INTRA.DIHEDRAL.0>
18.9093

>  <SCORE.INTRA.POLAR>
0

>  <SCORE.INTRA.POLAR.0>
0

>  <SCORE.INTRA.REPUL>
0

>  <SCORE.INTRA.REPUL.0>
0

>  <SCORE.INTRA.VDW>
2.03704e-11

>  <SCORE.INTRA.VDW.0>
-5.02882

>  <SCORE.INTRA.norm>
7.78283e-13

>  <SCORE.RESTR>
0

>  <SCORE.RESTR.CAVITY>
0

>  <SCORE.RESTR.norm>
0

>  <SCORE.SYSTEM>
-0.400995

>  <SCORE.SYSTEM.CONST>
0

>  <SCORE.SYSTEM.DIHEDRAL>
0.174803

>  <SCORE.SYSTEM.VDW>
-0.488396

>  <SCORE.SYSTEM.norm>
-0.0154229

>  <SCORE.heavy>
26

>  <SCORE.norm>
-0.47577

$$$$
1a30_ligand
  rDOCK(R)          3D
libRbt.so/2013.1/901 2013/11/27
 31 30  0  0  0  0  0  0  0  0999 V2000
    4.7039   27.9345    5.8667 N   0  3  0  0  0  0
    5.5764   26.7483    5.6533 C   0  0  0  0  0  0
    7.0349   27.1049    5.9355 C   0  0  0  0  0  0
    7.4829   28.2224    5.6560 O   0  0  0  0  0  0
    5.4118   26.2076    4.2308 C   0  0  0  0  0  0
    5.5614   27.2601    3.1501 C   0  0  0  0  0  0
    5.2911   26.7248    1.7575 C   0  0  0  0  0  0
    4.3134   25.9605    1.5859 O   0  0  0  0  0  0
    6.0532   27.0842    0.8316 O   0  0  0  0  0  0
    7.7536   26.1669    6.5401 N   0  0  0  0  0  0
    9.1573   26.3607    6.8789 C   0  0  0  0  0  0
    9.9645   25.2118    6.3009 C   0  0  0  0  0  0
   10.0634   24.1421    6.9064 O   0  0  0  0  0  0
    9.3150   26.4470    8.3949 C   0  0  0  0  0  0
    8.6543   27.6856    8.9644 C   0  0  0  0  0  0
    9.2826   28.7583    8.8950 O   0  0  0  0  0  0
    7.4989   27.6020    9.4392 O   0  0  0  0  0  0
   10.4977   25.4320    5.1026 N   0  0  0  0  0  0
   11.2695   24.4185    4.3993 C   0  0  0  0  0  0
   12.7589   24.7099    4.3812 C   0  0  0  0  0  0
   13.5449   23.7478    4.2462 O   0  0  0  0  0  0
   10.7432   24.2866    2.9770 C   0  0  0  0  0  0
    9.2844   23.8443    3.0172 C   0  0  0  0  0  0
    8.4807   24.6077    2.0086 C   0  0  0  0  0  0
    9.1996   22.3385    2.8163 C   0  0  0  0  0  0
   13.1256   25.8967    4.5035 O   0  0  0  0  0  0
    3.7457   27.6852    5.6772 H   0  0  0  0  0  0
    4.9872   28.6761    5.2455 H   0  0  0  0  0  0
    4.7875   28.2457    6.8218 H   0  0  0  0  0  0
    7.3167   25.2976    6.7710 H   0  0  0  0  0  0
   10.3638   26.3238    4.6705 H   0  0  0  0  0  0
  1 27  1  0  0  0
  1 28  1  0  0  0
  1 29  1  0  0  0
  2  5  1  0  0  0
  2  1  1  0  0  0
  3  2  1  0  0  0
  3  4  2  0  0  0
  5  6  1  0  0  0
  6  7  1  0  0  0
  7  8  2  0  0  0
  7  9  1  0  0  0
 10  3  1  0  0  0
 10 30  1  0  0  0
 11 14  1  0  0  0
 11 10  1  0  0  0
 12 11  1  0  0  0
 12 13  2  0  0  0
 12 18  1  0  0  0
 14 15  1  0  0  0
 15 16  2  0  0  0
 15 17  1  0  0  0
 18 19  1  0  0  0
 18 31  1  0  0  0
 19 20  1  0  0  0
 19 22  1  0  0  0
 20 26  2  0  0  0
 20 21  1  0  0  0
 22 23  1  0  0  0
 23 25  1  0  0  0
 23 24  1  0  0  0
M  END
>  <CHROM.0>
179.31132844,173.90723252

>  <CHROM.1>
8.51770065,25.97927805,5.01210520,-3.14040873,0.39263965,-1.97802699

>  <Name>
1a30_ligand

>  <RI>
4.05962e+07

>  <Rbt.Current_Directory>
/lustre3/iip_pkuhpc/iip_test/qxie/dock/rdock/rigid_docking

>  <Rbt.Executable>
rbdock ($Id: //depot/dev/client3/rdock/2013.1/src/exe/rbdock.cxx#4 $)

>  <Rbt.Library>
libRbt.so (2013.1, Build901 2013/11/27)

>  <Rbt.Parameter_File>
dock.prm

>  <Rbt.Receptor>
prm_rigid/1a30.prm

>  <SCORE>
-12.349

>  <SCORE.INTER>
-11.9486

>  <SCORE.INTER.CONST>
1

>  <SCORE.INTER.POLAR>
-2.46432

>  <SCORE.INTER.REPUL>
0

>  <SCORE.INTER.ROT>
12

>  <SCORE.INTER.VDW>
-20.9699

>  <SCORE.INTER.norm>
-0.45956

>  <SCORE.INTRA>
4.18083e-11

>  <SCORE.INTRA.DIHEDRAL>
-1.10134e-13

>  <SCORE.INTRA.DIHEDRAL.0>
18.9093

>  <SCORE.INTRA.POLAR>
0

>  <SCORE.INTRA.POLAR.0>
0

>  <SCORE.INTRA.REPUL>
0

>  <SCORE.INTRA.REPUL.0>
0

>  <SCORE.INTRA.VDW>
4.18634e-11

>  <SCORE.INTRA.VDW.0>
-5.02882

>  <SCORE.INTRA.norm>
1.60801e-12

>  <SCORE.RESTR>
0

>  <SCORE.RESTR.CAVITY>
0

>  <SCORE.RESTR.norm>
0

>  <SCORE.SYSTEM>
-0.400447

>  <SCORE.SYSTEM.CONST>
0

>  <SCORE.SYSTEM.DIHEDRAL>
0.193545

>  <SCORE.SYSTEM.VDW>
-0.49722

>  <SCORE.SYSTEM.norm>
-0.0154018

>  <SCORE.heavy>
26

>  <SCORE.norm>
-0.474962

$$$$
1a30_ligand
  rDOCK(R)          3D
libRbt.so/2013.1/901 2013/11/27
 31 30  0  0  0  0  0  0  0  0999 V2000
    4.6506   27.9343    5.8616 N   0  3  0  0  0  0
    5.5217   26.7475    5.6459 C   0  0  0  0  0  0
    6.9794   27.0991    5.9387 C   0  0  0  0  0  0
    7.4314   28.2173    5.6687 O   0  0  0  0  0  0
    5.3642   26.2160    4.2191 C   0  0  0  0  0  0
    5.5224   27.2749    3.1458 C   0  0  0  0  0  0
    5.2590   26.7487    1.7484 C   0  0  0  0  0  0
    4.2805   25.9877    1.5665 O   0  0  0  0  0  0
    6.0272   27.1122    0.8292 O   0  0  0  0  0  0
    7.6926   26.1558    6.5416 N   0  0  0  0  0  0
    9.0946   26.3444    6.8897 C   0  0  0  0  0  0
    9.9027   25.1973    6.3093 C   0  0  0  0  0  0
    9.9957   24.1237    6.9086 O   0  0  0  0  0  0
    9.2438   26.4210    8.4071 C   0  0  0  0  0  0
    8.5825   27.6576    8.9805 C   0  0  0  0  0  0
    9.2135   28.7292    8.9212 O   0  0  0  0  0  0
    7.4242   27.5736    9.4480 O   0  0  0  0  0  0
   10.4433   25.4237    5.1155 N   0  0  0  0  0  0
   11.2169   24.4129    4.4104 C   0  0  0  0  0  0
   12.7070   24.7011    4.4026 C   0  0  0  0  0  0
   13.4916   23.7381    4.2662 O   0  0  0  0  0  0
   10.6985   24.2910    2.9843 C   0  0  0  0  0  0
    9.2386   23.8517    3.0133 C   0  0  0  0  0  0
    8.4424   24.6231    2.0048 C   0  0  0  0  0  0
    9.1516   22.3473    2.8026 C   0  0  0  0  0  0
   13.0756   25.8863    4.5344 O   0  0  0  0  0  0
    3.6930   27.6884    5.6651 H   0  0  0  0  0  0
    4.9392   28.6791    5.2467 H   0  0  0  0  0  0
    4.7294   28.2395    6.8191 H   0  0  0  0  0  0
    7.2524   25.2861    6.7646 H   0  0  0  0  0  0
   10.3138   26.3185    4.6881 H   0  0  0  0  0  0
  1 27  1  0  0  0
  1 28  1  0  0  0
  1 29  1  0  0  0
  2  5  1  0  0  0
  2  1  1  0  0  0
  3  2  1  0  0  0
  3  4  2  0  0  0
  5  6  1  0  0  0
  6  7  1  0  0  0
  7  8  2  0  0  0
  7  9  1  0  0  0
 10  3  1  0  0  0
 10 30  1  0  0  0
 11 14  1  0  0  0
 11 10  1  0  0  0
 12 11  1  0  0  0
 12 13  2  0  0  0
 12 18  1  0  0  0
 14 15  1  0  0  0
 15 16  2  0  0  0
 15 17  1  0  0  0
 18 19  1  0  0  0
 18 31  1  0  0  0
 19 20  1  0  0  0
 19 22  1  0  0  0
 20 26  2  0  0  0
 20 21  1  0  0  0
 22 23  1  0  0  0
 23 25  1  0  0  0
 23 24  1  0  0  0
M  END
>  <CHROM.0>
58.35115682,174.07032663

>  <CHROM.1>
8.46502709,25.97596852,5.01691098,3.13796189,0.39693421,-1.96999110

>  <Name>
1a30_ligand

>  <RI>
4.05962e+07

>  <Rbt.Current_Directory>
/lustre3/iip_pkuhpc/iip_test/qxie/dock/rdock/rigid_docking

>  <Rbt.Executable>
rbdock ($Id: //depot/dev/client3/rdock/2013.1/src/exe/rbdock.cxx#4 $)

>  <Rbt.Library>
libRbt.so (2013.1, Build901 2013/11/27)

>  <Rbt.Parameter_File>
dock.prm

>  <Rbt.Receptor>
prm_rigid/1a30.prm

>  <SCORE>
-12.3694

>  <SCORE.INTER>
-11.9685

>  <SCORE.INTER.CONST>
1

>  <SCORE.INTER.POLAR>
-2.52933

>  <SCORE.INTER.REPUL>
0

>  <SCORE.INTER.ROT>
12

>  <SCORE.INTER.VDW>
-20.7687

>  <SCORE.INTER.norm>
-0.460325

>  <SCORE.INTRA>
6.50902e-11

>  <SCORE.INTRA.DIHEDRAL>
1.45661e-13

>  <SCORE.INTRA.DIHEDRAL.0>
18.9093

>  <SCORE.INTRA.POLAR>
0

>  <SCORE.INTRA.POLAR.0>
0

>  <SCORE.INTRA.REPUL>
0

>  <SCORE.INTRA.REPUL.0>
0

>  <SCORE.INTRA.VDW>
6.50173e-11

>  <SCORE.INTRA.VDW.0>
-5.02882

>  <SCORE.INTRA.norm>
2.50347e-12

>  <SCORE.RESTR>
0

>  <SCORE.RESTR.CAVITY>
0

>  <SCORE.RESTR.norm>
0

>  <SCORE.SYSTEM>
-0.400895

>  <SCORE.SYSTEM.CONST>
0

>  <SCORE.SYSTEM.DIHEDRAL>
0.189586

>  <SCORE.SYSTEM.VDW>
-0.495688

>  <SCORE.SYSTEM.norm>
-0.015419

>  <SCORE.heavy>
26

>  <SCORE.norm>
-0.475745

$$$$
1a30_ligand
  rDOCK(R)          3D
libRbt.so/2013.1/901 2013/11/27
 31 30  0  0  0  0  0  0  0  0999 V2000
   12.0104   23.6426    4.6886 N   0  3  0  0  0  0
   10.9584   24.5730    4.1972 C   0  0  0  0  0  0
    9.8846   24.7718    5.2658 C   0  0  0  0  0  0
    9.5485   23.8449    6.0110 O   0  0  0  0  0  0
   10.3438   24.0520    2.8958 C   0  0  0  0  0  0
    9.8792   22.6108    2.9671 C   0  0  0  0  0  0
    9.3712   22.0835    1.6394 C   0  0  0  0  0  0
   10.0130   22.3561    0.5985 O   0  0  0  0  0  0
    8.3343   21.3821    1.6435 O   0  0  0  0  0  0
    9.3913   25.9997    5.3692 N   0  0  0  0  0  0
    8.3650   26.3456    6.3437 C   0  0  0  0  0  0
    7.2044   27.0057    5.6205 C   0  0  0  0  0  0
    7.2273   28.2102    5.3573 O   0  0  0  0  0  0
    8.9548   27.2655    7.4097 C   0  0  0  0  0  0
    9.9990   26.5618    8.2519 C   0  0  0  0  0  0
    9.5978   25.8364    9.1809 O   0  0  0  0  0  0
   11.2104   26.6940    7.9649 O   0  0  0  0  0  0
    6.2151   26.1922    5.2625 N   0  0  0  0  0  0
    5.0487   26.6647    4.5320 C   0  0  0  0  0  0
    3.7963   26.7296    5.3870 C   0  0  0  0  0  0
    2.8931   27.5238    5.0478 O   0  0  0  0  0  0
    4.8151   25.7648    3.3267 C   0  0  0  0  0  0
    6.0264   25.8331    2.4030 C   0  0  0  0  0  0
    6.3750   24.4655    1.8990 C   0  0  0  0  0  0
    5.7581   26.8218    1.2780 C   0  0  0  0  0  0
    3.7309   25.9873    6.3882 O   0  0  0  0  0  0
   12.7114   23.5207    3.9746 H   0  0  0  0  0  0
   11.5946   22.7506    4.9071 H   0  0  0  0  0  0
   12.4378   24.0260    5.5171 H   0  0  0  0  0  0
    9.7358   26.7117    4.7574 H   0  0  0  0  0  0
    6.2748   25.2235    5.5034 H   0  0  0  0  0  0
  1 27  1  0  0  0
  1 28  1  0  0  0
  1 29  1  0  0  0
  2  5  1  0  0  0
  2  1  1  0  0  0
  3  2  1  0  0  0
  3  4  2  0  0  0
  5  6  1  0  0  0
  6  7  1  0  0  0
  7  8  2  0  0  0
  7  9  1  0  0  0
 10  3  1  0  0  0
 10 30  1  0  0  0
 11 14  1  0  0  0
 11 10  1  0  0  0
 12 11  1  0  0  0
 12 13  2  0  0  0
 12 18  1  0  0  0
 14 15  1  0  0  0
 15 16  2  0  0  0
 15 17  1  0  0  0
 18 19  1  0  0  0
 18 31  1  0  0  0
 19 20  1  0  0  0
 19 22  1  0  0  0
 20 26  2  0  0  0
 20 21  1  0  0  0
 22 23  1  0  0  0
 23 25  1  0  0  0
 23 24  1  0  0  0
M  END
>  <CHROM.0>
58.56061431,174.19002661

>  <CHROM.1>
7.97974088,25.33114313,4.65197943,-0.56123708,-0.37293207,1.01674382

>  <Name>
1a30_ligand

>  <RI>
4.05962e+07

>  <Rbt.Current_Directory>
/lustre3/iip_pkuhpc/iip_test/qxie/dock/rdock/rigid_docking

>  <Rbt.Executable>
rbdock ($Id: //depot/dev/client3/rdock/2013.1/src/exe/rbdock.cxx#4 $)

>  <Rbt.Library>
libRbt.so (2013.1, Build901 2013/11/27)

>  <Rbt.Parameter_File>
dock.prm

>  <Rbt.Receptor>
prm_rigid/1a30.prm

>  <SCORE>
-5.11203

>  <SCORE.INTER>
-4.71091

>  <SCORE.INTER.CONST>
1

>  <SCORE.INTER.POLAR>
-2.91257

>  <SCORE.INTER.REPUL>
0.0316331

>  <SCORE.INTER.ROT>
12

>  <SCORE.INTER.VDW>
-12.3664

>  <SCORE.INTER.norm>
-0.181189

>  <SCORE.INTRA>
8.12594e-11

>  <SCORE.INTRA.DIHEDRAL>
1.33937e-12

>  <SCORE.INTRA.DIHEDRAL.0>
18.9093

>  <SCORE.INTRA.POLAR>
0

>  <SCORE.INTRA.POLAR.0>
0

>  <SCORE.INTRA.REPUL>
0

>  <SCORE.INTRA.REPUL.0>
0

>  <SCORE.INTRA.VDW>
8.05898e-11

>  <SCORE.INTRA.VDW.0>
-5.02882

>  <SCORE.INTRA.norm>
3.12536e-12

>  <SCORE.RESTR>
0

>  <SCORE.RESTR.CAVITY>
0

>  <SCORE.RESTR.norm>
0

>  <SCORE.SYSTEM>
-0.401123

>  <SCORE.SYSTEM.CONST>
0

>  <SCORE.SYSTEM.DIHEDRAL>
0.181188

>  <SCORE.SYSTEM.VDW>
-0.491717

>  <SCORE.SYSTEM.norm>
-0.0154278

>  <SCORE.heavy>
26

>  <SCORE.norm>
-0.196617

$$$$
1a30_ligand
  rDOCK(R)          3D
libRbt.so/2013.1/901 2013/11/27
 31 30  0  0  0  0  0  0  0  0999 V2000
    4.6527   27.9411    5.8659 N   0  3  0  0  0  0
    5.5181   26.7496    5.6536 C   0  0  0  0  0  0
    6.9783   27.0967    5.9389 C   0  0  0  0  0  0
    7.4339   28.2115    5.6609 O   0  0  0  0  0  0
    5.3529   26.2107    4.2304 C   0  0  0  0  0  0
    5.5114   27.2629    3.1507 C   0  0  0  0  0  0
    5.2405   26.7301    1.7572 C   0  0  0  0  0  0
    4.2582   25.9722    1.5832 O   0  0  0  0  0  0
    6.0067   27.0852    0.8330 O   0  0  0  0  0  0
    7.6899   26.1539    6.5444 N   0  0  0  0  0  0
    9.0940   26.3385    6.8861 C   0  0  0  0  0  0
    9.8951   25.1850    6.3091 C   0  0  0  0  0  0
    9.9860   24.1142    6.9140 O   0  0  0  0  0  0
    9.2492   26.4230    8.4025 C   0  0  0  0  0  0
    8.5953   27.6655    8.9714 C   0  0  0  0  0  0
    9.2305   28.7341    8.9038 O   0  0  0  0  0  0
    7.4384   27.5889    9.4438 O   0  0  0  0  0  0
   10.4321   25.4024    5.1119 N   0  0  0  0  0  0
   11.1988   24.3845    4.4096 C   0  0  0  0  0  0
   12.6901   24.6665    4.3946 C   0  0  0  0  0  0
   13.4702   23.6995    4.2606 O   0  0  0  0  0  0
   10.6745   24.2568    2.9862 C   0  0  0  0  0  0
    9.2129   23.8237    3.0232 C   0  0  0  0  0  0
    8.4161   24.5928    2.0134 C   0  0  0  0  0  0
    9.1189   22.3185    2.8212 C   0  0  0  0  0  0
   13.0640   25.8508    4.5183 O   0  0  0  0  0  0
    3.6933   27.6980    5.6744 H   0  0  0  0  0  0
    4.9420   28.6813    5.2458 H   0  0  0  0  0  0
    4.7364   28.2513    6.8214 H   0  0  0  0  0  0
    7.2469   25.2872    6.7739 H   0  0  0  0  0  0
   10.3046   26.2953    4.6801 H   0  0  0  0  0  0
  1 27  1  0  0  0
  1 28  1  0  0  0
  1 29  1  0  0  0
  2  5  1  0  0  0
  2  1  1  0  0  0
  3  2  1  0  0  0
  3  4  2  0  0  0
  5  6  1  0  0  0
  6  7  1  0  0  0
  7  8  2  0  0  0
  7  9  1  0  0  0
 10  3  1  0  0  0
 10 30  1  0  0  0
 11 14  1  0  0  0
 11 10  1  0  0  0
 12 11  1  0  0  0
 12 13  2  0  0  0
 12 18  1  0  0  0
 14 15  1  0  0  0
 15 16  2  0  0  0
 15 17  1  0  0  0
 18 19  1  0  0  0
 18 31  1  0  0  0
 19 20  1  0  0  0
 19 22  1  0  0  0
 20 26  2  0  0  0
 20 21  1  0  0  0
 22 23  1  0  0  0
 23 25  1  0  0  0
 23 24  1  0  0  0
M  END
>  <CHROM.0>
58.47011148,174.63274360

>  <CHROM.1>
8.45575995,25.96231620,5.01780294,-3.13967519,0.39924487,-1.97772125

>  <Name>
1a30_ligand

>  <RI>
4.05962e+07

>  <Rbt.Current_Directory>
/lustre3/iip_pkuhpc/iip_test/qxie/dock/rdock/rigid_docking

>  <Rbt.Executable>
rbdock ($Id: //depot/dev/client3/rdock/2013.1/src/exe/rbdock.cxx#4 $)

>  <Rbt.Library>
libRbt.so (2013.1, Build901 2013/11/27)

>  <Rbt.Parameter_File>
dock.prm

>  <Rbt.Receptor>
prm_rigid/1a30.prm

>  <SCORE>
-12.3347

>  <SCORE.INTER>
-11.9342

>  <SCORE.INTER.CONST>
1

>  <SCORE.INTER.POLAR>
-2.53533

>  <SCORE.INTER.REPUL>
0.000529121

>  <SCORE.INTER.ROT>
12

>  <SCORE.INTER.VDW>
-20.7167

>  <SCORE.INTER.norm>
-0.459008

>  <SCORE.INTRA>
8.98206e-11

>  <SCORE.INTRA.DIHEDRAL>
2.4869e-12

>  <SCORE.INTRA.DIHEDRAL.0>
18.9093

>  <SCORE.INTRA.POLAR>
0

>  <SCORE.INTRA.POLAR.0>
0

>  <SCORE.INTRA.REPUL>
0

>  <SCORE.INTRA.REPUL.0>
0

>  <SCORE.INTRA.VDW>
8.85771e-11

>  <SCORE.INTRA.VDW.0>
-5.02882

>  <SCORE.INTRA.norm>
3.45464e-12

>  <SCORE.RESTR>
0

>  <SCORE.RESTR.CAVITY>
0

>  <SCORE.RESTR.norm>
0

>  <SCORE.SYSTEM>
-0.400474

>  <SCORE.SYSTEM.CONST>
0

>  <SCORE.SYSTEM.DIHEDRAL>
0.157854

>  <SCORE.SYSTEM.VDW>
-0.479401

>  <SCORE.SYSTEM.norm>
-0.0154028

>  <SCORE.heavy>
26

>  <SCORE.norm>
-0.474411

$$$$
1a30_ligand
  rDOCK(R)          3D
libRbt.so/2013.1/901 2013/11/27
 31 30  0  0  0  0  0  0  0  0999 V2000
    4.6613   27.9332    5.8609 N   0  3  0  0  0  0
    5.5304   26.7453    5.6432 C   0  0  0  0  0  0
    6.9895   27.0955    5.9311 C   0  0  0  0  0  0
    7.4418   28.2130    5.6589 O   0  0  0  0  0  0
    5.3677   26.2130    4.2173 C   0  0  0  0  0  0
    5.5237   27.2710    3.1428 C   0  0  0  0  0  0
    5.2552   26.7443    1.7466 C   0  0  0  0  0  0
    4.2754   25.9842    1.5682 O   0  0  0  0  0  0
    6.0209   27.1062    0.8246 O   0  0  0  0  0  0
    7.7035   26.1519    6.5324 N   0  0  0  0  0  0
    9.1069   26.3391    6.8758 C   0  0  0  0  0  0
    9.9118   25.1908    6.2936 C   0  0  0  0  0  0
   10.0056   24.1174    6.8933 O   0  0  0  0  0  0
    9.2609   26.4166    8.3926 C   0  0  0  0  0  0
    8.6029   27.6542    8.9673 C   0  0  0  0  0  0
    9.2349   28.7251    8.9054 O   0  0  0  0  0  0
    7.4460   27.5718    9.4386 O   0  0  0  0  0  0
   10.4488   25.4158    5.0979 N   0  0  0  0  0  0
   11.2190   24.4037    4.3910 C   0  0  0  0  0  0
   12.7094   24.6902    4.3782 C   0  0  0  0  0  0
   13.4926   23.7263    4.2400 O   0  0  0  0  0  0
   10.6960   24.2814    2.9666 C   0  0  0  0  0  0
    9.2357   23.8437    3.0006 C   0  0  0  0  0  0
    8.4372   24.6153    1.9942 C   0  0  0  0  0  0
    9.1464   22.3393    2.7912 C   0  0  0  0  0  0
   13.0797   25.8751    4.5081 O   0  0  0  0  0  0
    3.7028   27.6882    5.6676 H   0  0  0  0  0  0
    4.9487   28.6773    5.2445 H   0  0  0  0  0  0
    4.7435   28.2389    6.8179 H   0  0  0  0  0  0
    7.2631   25.2827    6.7573 H   0  0  0  0  0  0
   10.3189   26.3104    4.6703 H   0  0  0  0  0  0
  1 27  1  0  0  0
  1 28  1  0  0  0
  1 29  1  0  0  0
  2  5  1  0  0  0
  2  1  1  0  0  0
  3  2  1  0  0  0
  3  4  2  0  0  0
  5  6  1  0  0  0
  6  7  1  0  0  0
  7  8  2  0  0  0
  7  9  1  0  0  0
 10  3  1  0  0  0
 10 30  1  0  0  0
 11 14  1  0  0  0
 11 10  1  0  0  0
 12 11  1  0  0  0
 12 13  2  0  0  0
 12 18  1  0  0  0
 14 15  1  0  0  0
 15 16  2  0  0  0
 15 17  1  0  0  0
 18 19  1  0  0  0
 18 31  1  0  0  0
 19 20  1  0  0  0
 19 22  1  0  0  0
 20 26  2  0  0  0
 20 21  1  0  0  0
 22 23  1  0  0  0
 23 25  1  0  0  0
 23 24  1  0  0  0
M  END
>  <CHROM.0>
179.69224904,174.22116642

>  <CHROM.1>
8.47087730,25.97014231,5.00529202,-3.14156595,0.39669250,-1.97206309

>  <Name>
1a30_ligand

>  <RI>
4.05962e+07

>  <Rbt.Current_Directory>
/lustre3/iip_pkuhpc/iip_test/qxie/dock/rdock/rigid_docking

>  <Rbt.Executable>
rbdock ($Id: //depot/dev/client3/rdock/2013.1/src/exe/rbdock.cxx#4 $)

>  <Rbt.Library>
libRbt.so (2013.1, Build901 2013/11/27)

>  <Rbt.Parameter_File>
dock.prm

>  <Rbt.Receptor>
prm_rigid/1a30.prm

>  <SCORE>
-12.3561

>  <SCORE.INTER>
-11.9564

>  <SCORE.INTER.CONST>
1

>  <SCORE.INTER.POLAR>
-2.52645

>  <SCORE.INTER.REPUL>
0

>  <SCORE.INTER.ROT>
12

>  <SCORE.INTER.VDW>
-20.7664

>  <SCORE.INTER.norm>
-0.45986

>  <SCORE.INTRA>
1.00271e-10

>  <SCORE.INTRA.DIHEDRAL>
3.32179e-12

>  <SCORE.INTRA.DIHEDRAL.0>
18.9093

>  <SCORE.INTRA.POLAR>
0

>  <SCORE.INTRA.POLAR.0>
0

>  <SCORE.INTRA.REPUL>
0

>  <SCORE.INTRA.REPUL.0>
0

>  <SCORE.INTRA.VDW>
9.861e-11

>  <SCORE.INTRA.VDW.0>
-5.02882

>  <SCORE.INTRA.norm>
3.85657e-12

>  <SCORE.RESTR>
0

>  <SCORE.RESTR.CAVITY>
0

>  <SCORE.RESTR.norm>
0

>  <SCORE.SYSTEM>
-0.399694

>  <SCORE.SYSTEM.CONST>
0

>  <SCORE.SYSTEM.DIHEDRAL>
0.174572

>  <SCORE.SYSTEM.VDW>
-0.486979

>  <SCORE.SYSTEM.norm>
-0.0153728

>  <SCORE.heavy>
26

>  <SCORE.norm>
-0.475233

$$$$
1a30_ligand
  rDOCK(R)          3D
libRbt.so/2013.1/901 2013/11/27
 31 30  0  0  0  0  0  0  0  0999 V2000
    4.6395   27.9353    5.8689 N   0  3  0  0  0  0
    5.5046   26.7444    5.6519 C   0  0  0  0  0  0
    6.9650   27.0901    5.9385 C   0  0  0  0  0  0
    7.4208   28.2058    5.6650 O   0  0  0  0  0  0
    5.3393   26.2113    4.2266 C   0  0  0  0  0  0
    5.4981   27.2677    3.1510 C   0  0  0  0  0  0
    5.2271   26.7404    1.7554 C   0  0  0  0  0  0
    4.2446   25.9834    1.5784 O   0  0  0  0  0  0
    5.9933   27.0990    0.8327 O   0  0  0  0  0  0
    7.6762   26.1447    6.5403 N   0  0  0  0  0  0
    9.0804   26.3276    6.8828 C   0  0  0  0  0  0
    9.8812   25.1761    6.3011 C   0  0  0  0  0  0
    9.9718   24.1030    6.9019 O   0  0  0  0  0  0
    9.2357   26.4061    8.3994 C   0  0  0  0  0  0
    8.5821   27.6464    8.9733 C   0  0  0  0  0  0
    9.2175   28.7152    8.9099 O   0  0  0  0  0  0
    7.4251   27.5683    9.4454 O   0  0  0  0  0  0
   10.4183   25.3982    5.1049 N   0  0  0  0  0  0
   11.1847   24.3828    4.3986 C   0  0  0  0  0  0
   12.6761   24.6645    4.3846 C   0  0  0  0  0  0
   13.4560   23.6979    4.2469 O   0  0  0  0  0  0
   10.6605   24.2609    2.9746 C   0  0  0  0  0  0
    9.1988   23.8280    3.0099 C   0  0  0  0  0  0
    8.4021   24.6013    2.0032 C   0  0  0  0  0  0
    9.1044   22.3237    2.8020 C   0  0  0  0  0  0
   13.0503   25.8482    4.5131 O   0  0  0  0  0  0
    3.6801   27.6933    5.6764 H   0  0  0  0  0  0
    4.9290   28.6779    5.2517 H   0  0  0  0  0  0
    4.7233   28.2417    6.8256 H   0  0  0  0  0  0
    7.2331   25.2772    6.7664 H   0  0  0  0  0  0
   10.2911   26.2928    4.6766 H   0  0  0  0  0  0
  1 27  1  0  0  0
  1 28  1  0  0  0
  1 29  1  0  0  0
  2  5  1  0  0  0
  2  1  1  0  0  0
  3  2  1  0  0  0
  3  4  2  0  0  0
  5  6  1  0  0  0
  6  7  1  0  0  0
  7  8  2  0  0  0
  7  9  1  0  0  0
 10  3  1  0  0  0
 10 30  1  0  0  0
 11 14  1  0  0  0
 11 10  1  0  0  0
 12 11  1  0  0  0
 12 13  2  0  0  0
 12 18  1  0  0  0
 14 15  1  0  0  0
 15 16  2  0  0  0
 15 17  1  0  0  0
 18 19  1  0  0  0
 18 31  1  0  0  0
 19 20  1  0  0  0
 19 22  1  0  0  0
 20 26  2  0  0  0
 20 21  1  0  0  0
 22 23  1  0  0  0
 23 25  1  0  0  0
 23 24  1  0  0  0
M  END
>  <CHROM.0>
58.58097719,174.01372687

>  <CHROM.1>
8.44211645,25.95892374,5.01297179,-3.13957269,0.39948239,-1.97381207

>  <Name>
1a30_ligand

>  <RI>
4.05962e+07

>  <Rbt.Current_Directory>
/lustre3/iip_pkuhpc/iip_test/qxie/dock/rdock/rigid_docking

>  <Rbt.Executable>
rbdock ($Id: //depot/dev/client3/rdock/2013.1/src/exe/rbdock.cxx#4 $)

>  <Rbt.Library>
libRbt.so (2013.1, Build901 2013/11/27)

>  <Rbt.Parameter_File>
dock.prm

>  <Rbt.Receptor>
prm_rigid/1a30.prm

>  <SCORE>
-12.3224

>  <SCORE.INTER>
-11.9214

>  <SCORE.INTER.CONST>
1

>  <SCORE.INTER.POLAR>
-2.55442

>  <SCORE.INTER.REPUL>
0

>  <SCORE.INTER.ROT>
12

>  <SCORE.INTER.VDW>
-20.6364

>  <SCORE.INTER.norm>
-0.458515

>  <SCORE.INTRA>
1.13053e-10

>  <SCORE.INTRA.DIHEDRAL>
2.39808e-12

>  <SCORE.INTRA.DIHEDRAL.0>
18.9093

>  <SCORE.INTRA.POLAR>
0

>  <SCORE.INTRA.POLAR.0>
0

>  <SCORE.INTRA.REPUL>
0

>  <SCORE.INTRA.REPUL.0>
0

>  <SCORE.INTRA.VDW>
1.11854e-10

>  <SCORE.INTRA.VDW.0>
-5.02882

>  <SCORE.INTRA.norm>
4.34818e-12

>  <SCORE.RESTR>
0

>  <SCORE.RESTR.CAVITY>
0

>  <SCORE.RESTR.norm>
0

>  <SCORE.SYSTEM>
-0.401043

>  <SCORE.SYSTEM.CONST>
0

>  <SCORE.SYSTEM.DIHEDRAL>
0.191114

>  <SCORE.SYSTEM.VDW>
-0.4966

>  <SCORE.SYSTEM.norm>
-0.0154247

>  <SCORE.heavy>
26

>  <SCORE.norm>
-0.47394

$$$$
1a30_ligand
  rDOCK(R)          3D
libRbt.so/2013.1/901 2013/11/27
 31 30  0  0  0  0  0  0  0  0999 V2000
    4.6504   27.9262    5.8720 N   0  3  0  0  0  0
    5.5236   26.7405    5.6587 C   0  0  0  0  0  0
    6.9813   27.0965    5.9465 C   0  0  0  0  0  0
    7.4301   28.2146    5.6710 O   0  0  0  0  0  0
    5.3637   26.2031    4.2344 C   0  0  0  0  0  0
    5.5169   27.2582    3.1566 C   0  0  0  0  0  0
    5.2512   26.7261    1.7619 C   0  0  0  0  0  0
    4.2740   25.9622    1.5853 O   0  0  0  0  0  0
    6.0163   27.0877    0.8393 O   0  0  0  0  0  0
    7.6980   26.1571    6.5513 N   0  0  0  0  0  0
    9.1005   26.3501    6.8951 C   0  0  0  0  0  0
    9.9097   25.2027    6.3171 C   0  0  0  0  0  0
   10.0066   24.1315    6.9203 O   0  0  0  0  0  0
    9.2533   26.4330    8.4118 C   0  0  0  0  0  0
    8.5907   27.6702    8.9820 C   0  0  0  0  0  0
    9.2192   28.7430    8.9171 O   0  0  0  0  0  0
    7.4337   27.5855    9.4528 O   0  0  0  0  0  0
   10.4468   25.4256    5.1210 N   0  0  0  0  0  0
   11.2209   24.4138    4.4179 C   0  0  0  0  0  0
   12.7104   24.7053    4.4053 C   0  0  0  0  0  0
   13.4968   23.7436    4.2707 O   0  0  0  0  0  0
   10.6993   24.2853    2.9936 C   0  0  0  0  0  0
    9.2404   23.8428    3.0280 C   0  0  0  0  0  0
    8.4400   24.6085    2.0185 C   0  0  0  0  0  0
    9.1563   22.3374    2.8233 C   0  0  0  0  0  0
   13.0766   25.8918    4.5316 O   0  0  0  0  0  0
    3.6929   27.6773    5.6788 H   0  0  0  0  0  0
    4.9358   28.6693    5.2535 H   0  0  0  0  0  0
    4.7309   28.2352    6.8281 H   0  0  0  0  0  0
    7.2603   25.2872    6.7787 H   0  0  0  0  0  0
   10.3142   26.3185    4.6905 H   0  0  0  0  0  0
  1 27  1  0  0  0
  1 28  1  0  0  0
  1 29  1  0  0  0
  2  5  1  0  0  0
  2  1  1  0  0  0
  3  2  1  0  0  0
  3  4  2  0  0  0
  5  6  1  0  0  0
  6  7  1  0  0  0
  7  8  2  0  0  0
  7  9  1  0  0  0
 10  3  1  0  0  0
 10 30  1  0  0  0
 11 14  1  0  0  0
 11 10  1  0  0  0
 12 11  1  0  0  0
 12 13  2  0  0  0
 12 18  1  0  0  0
 14 15  1  0  0  0
 15 16  2  0  0  0
 15 17  1  0  0  0
 18 19  1  0  0  0
 18 31  1  0  0  0
 19 20  1  0  0  0
 19 22  1  0  0  0
 20 26  2  0  0  0
 20 21  1  0  0  0
 22 23  1  0  0  0
 23 25  1  0  0  0
 23 24  1  0  0  0
M  END
>  <CHROM.0>
179.08647113,174.18330643

>  <CHROM.1>
8.46710064,25.97309268,5.02530831,3.13950836,0.39389799,-1.97444633

>  <Name>
1a30_ligand

>  <RI>
4.05962e+07

>  <Rbt.Current_Directory>
/lustre3/iip_pkuhpc/iip_test/qxie/dock/rdock/rigid_docking

>  <Rbt.Executable>
rbdock ($Id: //depot/dev/client3/rdock/2013.1/src/exe/rbdock.cxx#4 $)

>  <Rbt.Library>
libRbt.so (2013.1, Build901 2013/11/27)

>  <Rbt.Parameter_File>
dock.prm

>  <Rbt.Receptor>
prm_rigid/1a30.prm

>  <SCORE>
-12.3328

>  <SCORE.INTER>
-11.9318

>  <SCORE.INTER.CONST>
1

>  <SCORE.INTER.POLAR>
-2.5247

>  <SCORE.INTER.REPUL>
0

>  <SCORE.INTER.ROT>
12

>  <SCORE.INTER.VDW>
-20.7478

>  <SCORE.INTER.norm>
-0.458914

>  <SCORE.INTRA>
1.25874e-10

>  <SCORE.INTRA.DIHEDRAL>
4.22062e-12

>  <SCORE.INTRA.DIHEDRAL.0>
18.9093

>  <SCORE.INTRA.POLAR>
0

>  <SCORE.INTRA.POLAR.0>
0

>  <SCORE.INTRA.REPUL>
0

>  <SCORE.INTRA.REPUL.0>
0

>  <SCORE.INTRA.VDW>
1.23763e-10

>  <SCORE.INTRA.VDW.0>
-5.02882

>  <SCORE.INTRA.norm>
4.84129e-12

>  <SCORE.RESTR>
0

>  <SCORE.RESTR.CAVITY>
0

>  <SCORE.RESTR.norm>
0

>  <SCORE.SYSTEM>
-0.401035

>  <SCORE.SYSTEM.CONST>
0

>  <SCORE.SYSTEM.DIHEDRAL>
0.178519

>  <SCORE.SYSTEM.VDW>
-0.490295

>  <SCORE.SYSTEM.norm>
-0.0154244

>  <SCORE.heavy>
26

>  <SCORE.norm>
-0.474339

$$$$
1a30_ligand
  rDOCK(R)          3D
libRbt.so/2013.1/901 2013/11/27
 31 30  0  0  0  0  0  0  0  0999 V2000
    4.6550   27.9289    5.8599 N   0  3  0  0  0  0
    5.5262   26.7425    5.6427 C   0  0  0  0  0  0
    6.9837   27.0934    5.9373 C   0  0  0  0  0  0
    7.4360   28.2121    5.6698 O   0  0  0  0  0  0
    5.3698   26.2137    4.2147 C   0  0  0  0  0  0
    5.5290   27.2745    3.1436 C   0  0  0  0  0  0
    5.2667   26.7511    1.7450 C   0  0  0  0  0  0
    4.2884   25.9905    1.5608 O   0  0  0  0  0  0
    6.0357   27.1162    0.8271 O   0  0  0  0  0  0
    7.6963   26.1489    6.5391 N   0  0  0  0  0  0
    9.0981   26.3367    6.8887 C   0  0  0  0  0  0
    9.9065   25.1907    6.3067 C   0  0  0  0  0  0
    9.9990   24.1159    6.9041 O   0  0  0  0  0  0
    9.2460   26.4105    8.4063 C   0  0  0  0  0  0
    8.5844   27.6459    8.9815 C   0  0  0  0  0  0
    9.2155   28.7176    8.9248 O   0  0  0  0  0  0
    7.4256   27.5612    9.4479 O   0  0  0  0  0  0
   10.4482   25.4193    5.1138 N   0  0  0  0  0  0
   11.2222   24.4098    4.4074 C   0  0  0  0  0  0
   12.7124   24.6979    4.4014 C   0  0  0  0  0  0
   13.4971   23.7351    4.2638 O   0  0  0  0  0  0
   10.7051   24.2906    2.9806 C   0  0  0  0  0  0
    9.2451   23.8514    3.0076 C   0  0  0  0  0  0
    8.4498   24.6247    2.0000 C   0  0  0  0  0  0
    9.1582   22.3474    2.7940 C   0  0  0  0  0  0
   13.0809   25.8828    4.5357 O   0  0  0  0  0  0
    3.6976   27.6834    5.6621 H   0  0  0  0  0  0
    4.9441   28.6749    5.2466 H   0  0  0  0  0  0
    4.7331   28.2322    6.8180 H   0  0  0  0  0  0
    7.2559   25.2787    6.7600 H   0  0  0  0  0  0
   10.3191   26.3149    4.6880 H   0  0  0  0  0  0
  1 27  1  0  0  0
  1 28  1  0  0  0
  1 29  1  0  0  0
  2  5  1  0  0  0
  2  1  1  0  0  0
  3  2  1  0  0  0
  3  4  2  0  0  0
  5  6  1  0  0  0
  6  7  1  0  0  0
  7  8  2  0  0  0
  7  9  1  0  0  0
 10  3  1  0  0  0
 10 30  1  0  0  0
 11 14  1  0  0  0
 11 10  1  0  0  0
 12 11  1  0  0  0
 12 13  2  0  0  0
 12 18  1  0  0  0
 14 15  1  0  0  0
 15 16  2  0  0  0
 15 17  1  0  0  0
 18 19  1  0  0  0
 18 31  1  0  0  0
 19 20  1  0  0  0
 19 22  1  0  0  0
 20 26  2  0  0  0
 20 21  1  0  0  0
 22 23  1  0  0  0
 23 25  1  0  0  0
 23 24  1  0  0  0
M  END
>  <CHROM.0>
-61.34680294,173.75264748

>  <CHROM.1>
8.47002522,25.97188081,5.01463794,3.13716785,0.39731696,-1.96778568

>  <Name>
1a30_ligand

>  <RI>
4.05962e+07

>  <Rbt.Current_Directory>
/lustre3/iip_pkuhpc/iip_test/qxie/dock/rdock/rigid_docking

>  <Rbt.Executable>
rbdock ($Id: //depot/dev/client3/rdock/2013.1/src/exe/rbdock.cxx#4 $)

>  <Rbt.Library>
libRbt.so (2013.1, Build901 2013/11/27)

>  <Rbt.Parameter_File>
dock.prm

>  <Rbt.Receptor>
prm_rigid/1a30.prm

>  <SCORE>
-12.3676

>  <SCORE.INTER>
-11.9669

>  <SCORE.INTER.CONST>
1

>  <SCORE.INTER.POLAR>
-2.52153

>  <SCORE.INTER.REPUL>
0

>  <SCORE.INTER.ROT>
12

>  <SCORE.INTER.VDW>
-20.7937

>  <SCORE.INTER.norm>
-0.460264

>  <SCORE.INTRA>
1.37262e-10

>  <SCORE.INTRA.DIHEDRAL>
4.12825e-12

>  <SCORE.INTRA.DIHEDRAL.0>
18.9093

>  <SCORE.INTRA.POLAR>
0

>  <SCORE.INTRA.POLAR.0>
0

>  <SCORE.INTRA.REPUL>
0

>  <SCORE.INTRA.REPUL.0>
0

>  <SCORE.INTRA.VDW>
1.35198e-10

>  <SCORE.INTRA.VDW.0>
-5.02882

>  <SCORE.INTRA.norm>
5.2793e-12

>  <SCORE.RESTR>
0

>  <SCORE.RESTR.CAVITY>
0

>  <SCORE.RESTR.norm>
0

>  <SCORE.SYSTEM>
-0.40071

>  <SCORE.SYSTEM.CONST>
0

>  <SCORE.SYSTEM.DIHEDRAL>
0.206066

>  <SCORE.SYSTEM.VDW>
-0.503743

>  <SCORE.SYSTEM.norm>
-0.0154119

>  <SCORE.heavy>
26

>  <SCORE.norm>
-0.475676

$$$$